10000114
  -OEChem-08262200182D

 68 71  0     1  0  0  0  0  0999 V2000
    9.8547    1.0528    0.0000 O   0  0  0  0  0  0  0  0  0  0  0  0
    5.0000    0.0286    0.0000 N   0  0  3  0  0  0  0  0  0  0  0  0
   13.3188    1.0661    0.0000 N   0  0  0  0  0  0  0  0  0  0  0  0
    3.5000   -0.8374    0.0000 C   0  0  0  0  0  0  0  0  0  0  0  0
    2.5000   -0.8374    0.0000 C   0  0  0  0  0  0  0  0  0  0  0  0
    4.0000   -1.7034    0.0000 C   0  0  0  0  0  0  0  0  0  0  0  0
    4.0000    0.0286    0.0000 C   0  0  0  0  0  0  0  0  0  0  0  0
    2.0000   -1.7034    0.0000 C   0  0  0  0  0  0  0  0  0  0  0  0
    3.5000   -2.5694    0.0000 C   0  0  0  0  0  0  0  0  0  0  0  0
    2.5000   -2.5694    0.0000 C   0  0  0  0  0  0  0  0  0  0  0  0
    5.4339    0.9296    0.0000 C   0  0  0  0  0  0  0  0  0  0  0  0
    5.4339   -0.8723    0.0000 C   0  0  0  0  0  0  0  0  0  0  0  0
    6.4088    1.1521    0.0000 C   0  0  0  0  0  0  0  0  0  0  0  0
    6.4088   -1.0949    0.0000 C   0  0  0  0  0  0  0  0  0  0  0  0
    7.1906    0.5286    0.0000 C   0  0  0  0  0  0  0  0  0  0  0  0
    7.1906   -0.4714    0.0000 C   0  0  0  0  0  0  0  0  0  0  0  0
   14.1868    0.5695    0.0000 C   0  0  0  0  0  0  0  0  0  0  0  0
   13.3150    2.0661    0.0000 C   0  0  0  0  0  0  0  0  0  0  0  0
   15.0509    1.0728    0.0000 C   0  0  0  0  0  0  0  0  0  0  0  0
   14.1791    2.5694    0.0000 C   0  0  0  0  0  0  0  0  0  0  0  0
   15.0470    2.0728    0.0000 C   0  0  0  0  0  0  0  0  0  0  0  0
   12.4547    0.5628    0.0000 C   0  0  0  0  0  0  0  0  0  0  0  0
    8.0846    1.0633    0.0000 C   0  0  0  0  0  0  0  0  0  0  0  0
    8.0846   -1.0060    0.0000 C   0  0  0  0  0  0  0  0  0  0  0  0
   11.5868    1.0594    0.0000 C   0  0  0  0  0  0  0  0  0  0  0  0
    8.9906    0.5494    0.0000 C   0  0  0  0  0  0  0  0  0  0  0  0
    8.9906   -0.4922    0.0000 C   0  0  0  0  0  0  0  0  0  0  0  0
   10.7227    0.5561    0.0000 C   0  0  0  0  0  0  0  0  0  0  0  0
    4.1200   -0.8374    0.0000 H   0  0  0  0  0  0  0  0  0  0  0  0
    2.6077   -0.2268    0.0000 H   0  0  0  0  0  0  0  0  0  0  0  0
    1.9174   -0.6253    0.0000 H   0  0  0  0  0  0  0  0  0  0  0  0
    4.4750   -2.1020    0.0000 H   0  0  0  0  0  0  0  0  0  0  0  0
    4.4750   -1.3049    0.0000 H   0  0  0  0  0  0  0  0  0  0  0  0
    4.1077    0.6392    0.0000 H   0  0  0  0  0  0  0  0  0  0  0  0
    3.4174    0.2407    0.0000 H   0  0  0  0  0  0  0  0  0  0  0  0
    1.5250   -1.3049    0.0000 H   0  0  0  0  0  0  0  0  0  0  0  0
    1.5250   -2.1020    0.0000 H   0  0  0  0  0  0  0  0  0  0  0  0
    3.3923   -3.1800    0.0000 H   0  0  0  0  0  0  0  0  0  0  0  0
    4.0826   -2.7815    0.0000 H   0  0  0  0  0  0  0  0  0  0  0  0
    1.9174   -2.7815    0.0000 H   0  0  0  0  0  0  0  0  0  0  0  0
    2.6077   -3.1800    0.0000 H   0  0  0  0  0  0  0  0  0  0  0  0
    5.4339    1.5496    0.0000 H   0  0  0  0  0  0  0  0  0  0  0  0
    4.8294    1.0676    0.0000 H   0  0  0  0  0  0  0  0  0  0  0  0
    4.8294   -1.0103    0.0000 H   0  0  0  0  0  0  0  0  0  0  0  0
    5.4339   -1.4924    0.0000 H   0  0  0  0  0  0  0  0  0  0  0  0
    6.8936    1.5387    0.0000 H   0  0  0  0  0  0  0  0  0  0  0  0
    6.1398    1.7107    0.0000 H   0  0  0  0  0  0  0  0  0  0  0  0
    6.1398   -1.6535    0.0000 H   0  0  0  0  0  0  0  0  0  0  0  0
    6.8936   -1.4814    0.0000 H   0  0  0  0  0  0  0  0  0  0  0  0
   13.7901    0.0930    0.0000 H   0  0  0  0  0  0  0  0  0  0  0  0
   14.5871    0.0961    0.0000 H   0  0  0  0  0  0  0  0  0  0  0  0
   13.1007    2.6479    0.0000 H   0  0  0  0  0  0  0  0  0  0  0  0
   12.7048    1.9561    0.0000 H   0  0  0  0  0  0  0  0  0  0  0  0
   15.2652    0.4910    0.0000 H   0  0  0  0  0  0  0  0  0  0  0  0
   15.6610    1.1828    0.0000 H   0  0  0  0  0  0  0  0  0  0  0  0
   14.5758    3.0459    0.0000 H   0  0  0  0  0  0  0  0  0  0  0  0
   13.7787    3.0429    0.0000 H   0  0  0  0  0  0  0  0  0  0  0  0
   15.6580    1.9675    0.0000 H   0  0  0  0  0  0  0  0  0  0  0  0
   15.2568    2.6562    0.0000 H   0  0  0  0  0  0  0  0  0  0  0  0
   12.0580    0.0863    0.0000 H   0  0  0  0  0  0  0  0  0  0  0  0
   12.8551    0.0894    0.0000 H   0  0  0  0  0  0  0  0  0  0  0  0
    8.0774    1.6832    0.0000 H   0  0  0  0  0  0  0  0  0  0  0  0
    8.0774   -1.6260    0.0000 H   0  0  0  0  0  0  0  0  0  0  0  0
   11.9835    1.5359    0.0000 H   0  0  0  0  0  0  0  0  0  0  0  0
   11.1864    1.5329    0.0000 H   0  0  0  0  0  0  0  0  0  0  0  0
    9.5264   -0.8043    0.0000 H   0  0  0  0  0  0  0  0  0  0  0  0
   10.3260    0.0796    0.0000 H   0  0  0  0  0  0  0  0  0  0  0  0
   11.1230    0.0827    0.0000 H   0  0  0  0  0  0  0  0  0  0  0  0
  1 26  1  0  0  0  0
  1 28  1  0  0  0  0
  2  7  1  0  0  0  0
  2 11  1  0  0  0  0
  2 12  1  0  0  0  0
  3 17  1  0  0  0  0
  3 18  1  0  0  0  0
  3 22  1  0  0  0  0
  4  5  1  0  0  0  0
  4  6  1  0  0  0  0
  4  7  1  0  0  0  0
  4 29  1  0  0  0  0
  5  8  1  0  0  0  0
  5 30  1  0  0  0  0
  5 31  1  0  0  0  0
  6  9  1  0  0  0  0
  6 32  1  0  0  0  0
  6 33  1  0  0  0  0
  7 34  1  0  0  0  0
  7 35  1  0  0  0  0
  8 10  1  0  0  0  0
  8 36  1  0  0  0  0
  8 37  1  0  0  0  0
  9 10  1  0  0  0  0
  9 38  1  0  0  0  0
  9 39  1  0  0  0  0
 10 40  1  0  0  0  0
 10 41  1  0  0  0  0
 11 13  1  0  0  0  0
 11 42  1  0  0  0  0
 11 43  1  0  0  0  0
 12 14  1  0  0  0  0
 12 44  1  0  0  0  0
 12 45  1  0  0  0  0
 13 15  1  0  0  0  0
 13 46  1  0  0  0  0
 13 47  1  0  0  0  0
 14 16  1  0  0  0  0
 14 48  1  0  0  0  0
 14 49  1  0  0  0  0
 15 16  2  0  0  0  0
 15 23  1  0  0  0  0
 16 24  1  0  0  0  0
 17 19  1  0  0  0  0
 17 50  1  0  0  0  0
 17 51  1  0  0  0  0
 18 20  1  0  0  0  0
 18 52  1  0  0  0  0
 18 53  1  0  0  0  0
 19 21  1  0  0  0  0
 19 54  1  0  0  0  0
 19 55  1  0  0  0  0
 20 21  1  0  0  0  0
 20 56  1  0  0  0  0
 20 57  1  0  0  0  0
 21 58  1  0  0  0  0
 21 59  1  0  0  0  0
 22 25  1  0  0  0  0
 22 60  1  0  0  0  0
 22 61  1  0  0  0  0
 23 26  2  0  0  0  0
 23 62  1  0  0  0  0
 24 27  2  0  0  0  0
 24 63  1  0  0  0  0
 25 28  1  0  0  0  0
 25 64  1  0  0  0  0
 25 65  1  0  0  0  0
 26 27  1  0  0  0  0
 27 66  1  0  0  0  0
 28 67  1  0  0  0  0
 28 68  1  0  0  0  0
M  END
> <PUBCHEM_COMPOUND_CID>
10000114

> <PUBCHEM_COMPOUND_CANONICALIZED>
1

> <PUBCHEM_CACTVS_COMPLEXITY>
430

> <PUBCHEM_CACTVS_HBOND_ACCEPTOR>
3

> <PUBCHEM_CACTVS_HBOND_DONOR>
0

> <PUBCHEM_CACTVS_ROTATABLE_BOND>
7

> <PUBCHEM_CACTVS_SUBSKEYS>
AAADcfB7IAAAAAAAAAAAAAAAAAAAAAAAAAA8YIAABYAAAAABAAAAHgAAAAAADQThmAYwBoMABACAAiBCAAACCAAgIAAIiAAOCIgMJiKEsRuGOCCmwBGIqAeQ0LIOoAABAAAQAABAAAIAACAAAAAAAAAAAA==

> <PUBCHEM_IUPAC_OPENEYE_NAME>
3-(cyclohexylmethyl)-7-[3-(1-piperidyl)propoxy]-1,2,4,5-tetrahydro-3-benzazepine

> <PUBCHEM_IUPAC_CAS_NAME>
3-(cyclohexylmethyl)-7-[3-(1-piperidinyl)propoxy]-1,2,4,5-tetrahydro-3-benzazepine

> <PUBCHEM_IUPAC_NAME_MARKUP>
3-(cyclohexylmethyl)-7-(3-piperidin-1-ylpropoxy)-1,2,4,5-tetrahydro-3-benzazepine

> <PUBCHEM_IUPAC_NAME>
3-(cyclohexylmethyl)-7-(3-piperidin-1-ylpropoxy)-1,2,4,5-tetrahydro-3-benzazepine

> <PUBCHEM_IUPAC_SYSTEMATIC_NAME>
3-(cyclohexylmethyl)-7-(3-piperidin-1-ylpropoxy)-1,2,4,5-tetrahydro-3-benzazepine

> <PUBCHEM_IUPAC_TRADITIONAL_NAME>
3-(cyclohexylmethyl)-7-(3-piperidinopropoxy)-1,2,4,5-tetrahydro-3-benzazepine

> <PUBCHEM_IUPAC_INCHI>
InChI=1S/C25H40N2O/c1-3-8-22(9-4-1)21-27-17-12-23-10-11-25(20-24(23)13-18-27)28-19-7-16-26-14-5-2-6-15-26/h10-11,20,22H,1-9,12-19,21H2

> <PUBCHEM_IUPAC_INCHIKEY>
HJFBPLBJEWOADA-UHFFFAOYSA-N

> <PUBCHEM_XLOGP3_AA>
5.8

> <PUBCHEM_EXACT_MASS>
384.314063904

> <PUBCHEM_MOLECULAR_FORMULA>
C25H40N2O

> <PUBCHEM_MOLECULAR_WEIGHT>
384.6

> <PUBCHEM_OPENEYE_CAN_SMILES>
C1CCC(CC1)CN2CCC3=C(CC2)C=C(C=C3)OCCCN4CCCCC4

> <PUBCHEM_OPENEYE_ISO_SMILES>
C1CCC(CC1)CN2CCC3=C(CC2)C=C(C=C3)OCCCN4CCCCC4

> <PUBCHEM_CACTVS_TPSA>
15.7

> <PUBCHEM_MONOISOTOPIC_WEIGHT>
384.314063904

> <PUBCHEM_TOTAL_CHARGE>
0

> <PUBCHEM_HEAVY_ATOM_COUNT>
28

> <PUBCHEM_ATOM_DEF_STEREO_COUNT>
0

> <PUBCHEM_ATOM_UDEF_STEREO_COUNT>
0

> <PUBCHEM_BOND_DEF_STEREO_COUNT>
0

> <PUBCHEM_BOND_UDEF_STEREO_COUNT>
0

> <PUBCHEM_ISOTOPIC_ATOM_COUNT>
0

> <PUBCHEM_COMPONENT_COUNT>
1

> <PUBCHEM_CACTVS_TAUTO_COUNT>
-1

> <PUBCHEM_COORDINATE_TYPE>
1
5
255

> <PUBCHEM_BONDANNOTATIONS>
15  16  8
15  23  8
16  24  8
23  26  8
24  27  8
26  27  8

$$$$
