10000169
  -OEChem-08262200182D

 50 53  0     1  0  0  0  0  0999 V2000
    6.7912    0.1547    0.0000 S   0  0  0  0  0  0  0  0  0  0  0  0
   10.2553   -2.8453    0.0000 O   0  0  0  0  0  0  0  0  0  0  0  0
    6.2912    3.3453    0.0000 O   0  0  0  0  0  0  0  0  0  0  0  0
    2.4529    0.7758    0.0000 O   0  0  0  0  0  0  0  0  0  0  0  0
    3.6358   -0.4893    0.0000 O   0  0  0  0  0  0  0  0  0  0  0  0
    8.5232   -1.8453    0.0000 N   0  0  0  0  0  0  0  0  0  0  0  0
    6.7912    1.1547    0.0000 C   0  0  3  0  0  0  0  0  0  0  0  0
    7.6572   -1.3453    0.0000 C   0  0  0  0  0  0  0  0  0  0  0  0
    9.3893   -1.3453    0.0000 C   0  0  0  0  0  0  0  0  0  0  0  0
    8.5232   -2.8453    0.0000 C   0  0  0  0  0  0  0  0  0  0  0  0
    7.6572   -0.3453    0.0000 C   0  0  0  0  0  0  0  0  0  0  0  0
    7.6922    1.5886    0.0000 C   0  0  0  0  0  0  0  0  0  0  0  0
    5.8902    1.5886    0.0000 C   0  0  0  0  0  0  0  0  0  0  0  0
   10.2553   -1.8453    0.0000 C   0  0  0  0  0  0  0  0  0  0  0  0
    9.3892   -3.3453    0.0000 C   0  0  0  0  0  0  0  0  0  0  0  0
    7.9147    2.5635    0.0000 C   0  0  0  0  0  0  0  0  0  0  0  0
    5.6677    2.5635    0.0000 C   0  0  0  0  0  0  0  0  0  0  0  0
    7.2912    3.3453    0.0000 C   0  0  0  0  0  0  0  0  0  0  0  0
    5.1377    0.8684    0.0000 C   0  0  0  0  0  0  0  0  0  0  0  0
    8.4447    0.8684    0.0000 C   0  0  0  0  0  0  0  0  0  0  0  0
    8.9052    2.8858    0.0000 C   0  0  0  0  0  0  0  0  0  0  0  0
    4.6772    2.8858    0.0000 C   0  0  0  0  0  0  0  0  0  0  0  0
    4.1400    1.1678    0.0000 C   0  0  0  0  0  0  0  0  0  0  0  0
    9.4424    1.1677    0.0000 C   0  0  0  0  0  0  0  0  0  0  0  0
    9.6742    2.1832    0.0000 C   0  0  0  0  0  0  0  0  0  0  0  0
    3.9082    2.1833    0.0000 C   0  0  0  0  0  0  0  0  0  0  0  0
    3.4096    0.4848    0.0000 C   0  0  0  0  0  0  0  0  0  0  0  0
    7.3162    0.8248    0.0000 H   0  0  0  0  0  0  0  0  0  0  0  0
    7.0466   -1.2376    0.0000 H   0  0  0  0  0  0  0  0  0  0  0  0
    7.4452   -1.9279    0.0000 H   0  0  0  0  0  0  0  0  0  0  0  0
    9.7878   -0.8704    0.0000 H   0  0  0  0  0  0  0  0  0  0  0  0
    8.9907   -0.8704    0.0000 H   0  0  0  0  0  0  0  0  0  0  0  0
    7.9126   -2.7377    0.0000 H   0  0  0  0  0  0  0  0  0  0  0  0
    8.3112   -3.4279    0.0000 H   0  0  0  0  0  0  0  0  0  0  0  0
    8.2678   -0.4530    0.0000 H   0  0  0  0  0  0  0  0  0  0  0  0
    7.8693    0.2373    0.0000 H   0  0  0  0  0  0  0  0  0  0  0  0
   10.8659   -1.9530    0.0000 H   0  0  0  0  0  0  0  0  0  0  0  0
   10.4673   -1.2627    0.0000 H   0  0  0  0  0  0  0  0  0  0  0  0
    8.9907   -3.8203    0.0000 H   0  0  0  0  0  0  0  0  0  0  0  0
    9.7878   -3.8203    0.0000 H   0  0  0  0  0  0  0  0  0  0  0  0
    7.8498    3.6143    0.0000 H   0  0  0  0  0  0  0  0  0  0  0  0
    7.1533    3.9498    0.0000 H   0  0  0  0  0  0  0  0  0  0  0  0
    5.2826    0.2656    0.0000 H   0  0  0  0  0  0  0  0  0  0  0  0
    8.2998    0.2656    0.0000 H   0  0  0  0  0  0  0  0  0  0  0  0
    9.0362    3.4918    0.0000 H   0  0  0  0  0  0  0  0  0  0  0  0
    4.5463    3.4919    0.0000 H   0  0  0  0  0  0  0  0  0  0  0  0
    9.8953    0.7443    0.0000 H   0  0  0  0  0  0  0  0  0  0  0  0
   10.2660    2.3683    0.0000 H   0  0  0  0  0  0  0  0  0  0  0  0
    3.3165    2.3683    0.0000 H   0  0  0  0  0  0  0  0  0  0  0  0
    2.0000    0.3524    0.0000 H   0  0  0  0  0  0  0  0  0  0  0  0
  1  7  1  0  0  0  0
  1 11  1  0  0  0  0
  2 14  1  0  0  0  0
  2 15  1  0  0  0  0
  3 17  1  0  0  0  0
  3 18  1  0  0  0  0
  4 27  1  0  0  0  0
  4 50  1  0  0  0  0
  5 27  2  0  0  0  0
  6  8  1  0  0  0  0
  6  9  1  0  0  0  0
  6 10  1  0  0  0  0
  7 12  1  0  0  0  0
  7 13  1  0  0  0  0
  7 28  1  0  0  0  0
  8 11  1  0  0  0  0
  8 29  1  0  0  0  0
  8 30  1  0  0  0  0
  9 14  1  0  0  0  0
  9 31  1  0  0  0  0
  9 32  1  0  0  0  0
 10 15  1  0  0  0  0
 10 33  1  0  0  0  0
 10 34  1  0  0  0  0
 11 35  1  0  0  0  0
 11 36  1  0  0  0  0
 12 16  1  0  0  0  0
 12 20  2  0  0  0  0
 13 17  2  0  0  0  0
 13 19  1  0  0  0  0
 14 37  1  0  0  0  0
 14 38  1  0  0  0  0
 15 39  1  0  0  0  0
 15 40  1  0  0  0  0
 16 18  1  0  0  0  0
 16 21  2  0  0  0  0
 17 22  1  0  0  0  0
 18 41  1  0  0  0  0
 18 42  1  0  0  0  0
 19 23  2  0  0  0  0
 19 43  1  0  0  0  0
 20 24  1  0  0  0  0
 20 44  1  0  0  0  0
 21 25  1  0  0  0  0
 21 45  1  0  0  0  0
 22 26  2  0  0  0  0
 22 46  1  0  0  0  0
 23 26  1  0  0  0  0
 23 27  1  0  0  0  0
 24 25  2  0  0  0  0
 24 47  1  0  0  0  0
 25 48  1  0  0  0  0
 26 49  1  0  0  0  0
M  END
> <PUBCHEM_COMPOUND_CID>
10000169

> <PUBCHEM_COMPOUND_CANONICALIZED>
1

> <PUBCHEM_CACTVS_COMPLEXITY>
499

> <PUBCHEM_CACTVS_HBOND_ACCEPTOR>
6

> <PUBCHEM_CACTVS_HBOND_DONOR>
1

> <PUBCHEM_CACTVS_ROTATABLE_BOND>
5

> <PUBCHEM_CACTVS_SUBSKEYS>
AAADceB6OABAAAAAAAAAAAAAAAAAAAAAAAA8YIAABIAAAAABQAAAHgQACAAADATl2AawDoMABgiIAiDSCAACCAAkIBAIiAEOCMgOJjKkNRqDeSCkwBG4uYeI7PzOoAACAAAYAABAAAQAADAAAAAAAAAAAA==

> <PUBCHEM_IUPAC_OPENEYE_NAME>
11-(2-morpholinoethylsulfanyl)-6,11-dihydrobenzo[c][1]benzoxepine-2-carboxylic acid

> <PUBCHEM_IUPAC_CAS_NAME>
11-[2-(4-morpholinyl)ethylthio]-6,11-dihydrobenzo[c][1]benzoxepin-2-carboxylic acid

> <PUBCHEM_IUPAC_NAME_MARKUP>
11-(2-morpholin-4-ylethylsulfanyl)-6,11-dihydrobenzo[c][1]benzoxepine-2-carboxylic acid

> <PUBCHEM_IUPAC_NAME>
11-(2-morpholin-4-ylethylsulfanyl)-6,11-dihydrobenzo[c][1]benzoxepine-2-carboxylic acid

> <PUBCHEM_IUPAC_SYSTEMATIC_NAME>
11-(2-morpholin-4-ylethylsulfanyl)-6,11-dihydrobenzo[c][1]benzoxepine-2-carboxylic acid

> <PUBCHEM_IUPAC_TRADITIONAL_NAME>
11-(2-morpholinoethylthio)-6,11-dihydrobenzo[c][1]benzoxepin-2-carboxylic acid

> <PUBCHEM_IUPAC_INCHI>
InChI=1S/C21H23NO4S/c23-21(24)15-5-6-19-18(13-15)20(17-4-2-1-3-16(17)14-26-19)27-12-9-22-7-10-25-11-8-22/h1-6,13,20H,7-12,14H2,(H,23,24)

> <PUBCHEM_IUPAC_INCHIKEY>
GMXHQPNVKQTICR-UHFFFAOYSA-N

> <PUBCHEM_XLOGP3_AA>
0.5

> <PUBCHEM_EXACT_MASS>
385.13477939

> <PUBCHEM_MOLECULAR_FORMULA>
C21H23NO4S

> <PUBCHEM_MOLECULAR_WEIGHT>
385.5

> <PUBCHEM_OPENEYE_CAN_SMILES>
C1COCCN1CCSC2C3=CC=CC=C3COC4=C2C=C(C=C4)C(=O)O

> <PUBCHEM_OPENEYE_ISO_SMILES>
C1COCCN1CCSC2C3=CC=CC=C3COC4=C2C=C(C=C4)C(=O)O

> <PUBCHEM_CACTVS_TPSA>
84.3

> <PUBCHEM_MONOISOTOPIC_WEIGHT>
385.13477939

> <PUBCHEM_TOTAL_CHARGE>
0

> <PUBCHEM_HEAVY_ATOM_COUNT>
27

> <PUBCHEM_ATOM_DEF_STEREO_COUNT>
0

> <PUBCHEM_ATOM_UDEF_STEREO_COUNT>
1

> <PUBCHEM_BOND_DEF_STEREO_COUNT>
0

> <PUBCHEM_BOND_UDEF_STEREO_COUNT>
0

> <PUBCHEM_ISOTOPIC_ATOM_COUNT>
0

> <PUBCHEM_COMPONENT_COUNT>
1

> <PUBCHEM_CACTVS_TAUTO_COUNT>
-1

> <PUBCHEM_COORDINATE_TYPE>
1
5
255

> <PUBCHEM_BONDANNOTATIONS>
7  1  3
12  16  8
12  20  8
13  17  8
13  19  8
16  21  8
17  22  8
19  23  8
20  24  8
21  25  8
22  26  8
23  26  8
24  25  8

$$$$
