001
  -OEChem-08302413003D

 87 90  0     1  0  0  0  0  0999 V2000
    0.4840   -0.0060   -3.0530 C   0  0  0  0  0  0  0  0  0  0  0  0
    0.5790    1.3630   -3.2130 C   0  0  0  0  0  0  0  0  0  0  0  0
    1.6890    1.9160   -3.8330 C   0  0  0  0  0  0  0  0  0  0  0  0
    2.7050    1.0900   -4.3000 C   0  0  0  0  0  0  0  0  0  0  0  0
    2.6090   -0.2860   -4.1320 C   0  0  0  0  0  0  0  0  0  0  0  0
    1.4950   -0.8310   -3.5100 C   0  0  0  0  0  0  0  0  0  0  0  0
    1.7810    3.2640   -3.9900 O   0  0  0  0  0  0  0  0  0  0  0  0
    0.5970    3.8270   -3.4220 C   0  0  0  0  0  0  0  0  0  0  0  0
    3.7960    1.6290   -4.9100 O   0  0  0  0  0  0  0  0  0  0  0  0
    3.5010    1.6880   -6.3070 C   0  0  0  0  0  0  0  0  0  0  0  0
    3.6030   -1.0980   -4.5820 O   0  0  0  0  0  0  0  0  0  0  0  0
    3.2140   -2.4380   -4.2720 C   0  0  0  0  0  0  0  0  0  0  0  0
   -0.7240   -0.6030   -2.3780 C   0  0  0  0  0  0  0  0  0  0  0  0
   -1.8370    0.2110   -2.6100 F   0  0  0  0  0  0  0  0  0  0  0  0
   -0.9640   -1.8800   -2.8940 F   0  0  0  0  0  0  0  0  0  0  0  0
   -0.4730   -0.7000   -0.8950 C   0  0  0  0  0  0  0  0  0  0  0  0
   -0.8250    0.1990   -0.1600 O   0  0  0  0  0  0  0  0  0  0  0  0
    0.1420   -1.7850   -0.3850 N   0  0  0  0  0  0  0  0  0  0  0  0
    0.6580   -2.8380   -1.2700 C   0  0  0  0  0  0  0  0  0  0  0  0
    2.1350   -3.0770   -0.9410 C   0  0  0  0  0  0  0  0  0  0  0  0
    2.2790   -3.3850    0.5510 C   0  0  0  0  0  0  0  0  0  0  0  0
    1.7900   -2.1870    1.3690 C   0  0  0  0  0  0  0  0  0  0  0  0
    0.3140   -1.9350    1.0670 C   0  0  1  0  0  0  0  0  0  0  0  0
   -0.1380   -0.6790    1.7660 C   0  0  0  0  0  0  0  0  0  0  0  0
    0.4830    0.3480    1.6240 O   0  0  0  0  0  0  0  0  0  0  0  0
   -1.2300   -0.7000    2.5460 O   0  0  0  0  0  0  0  0  0  0  0  0
   -1.6650    0.5100    3.2200 C   0  0  2  0  0  0  0  0  0  0  0  0
   -0.9980    0.5970    4.5950 C   0  0  0  0  0  0  0  0  0  0  0  0
    0.5220    0.6270    4.4230 C   0  0  0  0  0  0  0  0  0  0  0  0
    1.1890    0.7130    5.7970 C   0  0  0  0  0  0  0  0  0  0  0  0
    2.6870    0.7430    5.6280 C   0  0  0  0  0  0  0  0  0  0  0  0
    3.4130   -0.4330    5.6150 C   0  0  0  0  0  0  0  0  0  0  0  0
    4.7220   -0.4150    5.4620 N   0  0  0  0  0  0  0  0  0  0  0  0
    5.3890    0.7140    5.3270 C   0  0  0  0  0  0  0  0  0  0  0  0
    4.7310    1.9290    5.3350 C   0  0  0  0  0  0  0  0  0  0  0  0
    3.3540    1.9500    5.4890 C   0  0  0  0  0  0  0  0  0  0  0  0
   -3.1850    0.4800    3.3920 C   0  0  0  0  0  0  0  0  0  0  0  0
   -3.8520    0.3940    2.0180 C   0  0  0  0  0  0  0  0  0  0  0  0
   -5.3720    0.3640    2.1890 C   0  0  0  0  0  0  0  0  0  0  0  0
   -6.0280    0.2780    0.8360 C   0  0  0  0  0  0  0  0  0  0  0  0
   -6.2990   -0.9560    0.2760 C   0  0  0  0  0  0  0  0  0  0  0  0
   -6.9020   -1.0340   -0.9660 C   0  0  0  0  0  0  0  0  0  0  0  0
   -7.2340    0.1220   -1.6470 C   0  0  0  0  0  0  0  0  0  0  0  0
   -6.9640    1.3570   -1.0870 C   0  0  0  0  0  0  0  0  0  0  0  0
   -6.3650    1.4350    0.1570 C   0  0  0  0  0  0  0  0  0  0  0  0
   -0.2130    2.0040   -2.8540 H   0  0  0  0  0  0  0  0  0  0  0  0
    1.4180   -1.9010   -3.3830 H   0  0  0  0  0  0  0  0  0  0  0  0
    0.6260    4.9120   -3.5240 H   0  0  0  0  0  0  0  0  0  0  0  0
   -0.2770    3.4360   -3.9420 H   0  0  0  0  0  0  0  0  0  0  0  0
    0.5400    3.5640   -2.3660 H   0  0  0  0  0  0  0  0  0  0  0  0
    4.3510    2.1150   -6.8400 H   0  0  0  0  0  0  0  0  0  0  0  0
    3.3060    0.6820   -6.6800 H   0  0  0  0  0  0  0  0  0  0  0  0
    2.6210    2.3120   -6.4660 H   0  0  0  0  0  0  0  0  0  0  0  0
    3.9840   -3.1280   -4.6160 H   0  0  0  0  0  0  0  0  0  0  0  0
    3.0890   -2.5400   -3.1950 H   0  0  0  0  0  0  0  0  0  0  0  0
    2.2720   -2.6670   -4.7700 H   0  0  0  0  0  0  0  0  0  0  0  0
    0.0950   -3.7570   -1.1110 H   0  0  0  0  0  0  0  0  0  0  0  0
    0.5610   -2.5220   -2.3080 H   0  0  0  0  0  0  0  0  0  0  0  0
    2.5050   -3.9210   -1.5240 H   0  0  0  0  0  0  0  0  0  0  0  0
    2.7120   -2.1850   -1.1860 H   0  0  0  0  0  0  0  0  0  0  0  0
    1.6820   -4.2620    0.8000 H   0  0  0  0  0  0  0  0  0  0  0  0
    3.3250   -3.5800    0.7830 H   0  0  0  0  0  0  0  0  0  0  0  0
    1.9140   -2.3980    2.4320 H   0  0  0  0  0  0  0  0  0  0  0  0
    2.3690   -1.3040    1.1030 H   0  0  0  0  0  0  0  0  0  0  0  0
   -0.2800   -2.7800    1.4140 H   0  0  0  0  0  0  0  0  0  0  0  0
   -1.3830    1.3790    2.6250 H   0  0  0  0  0  0  0  0  0  0  0  0
   -1.3240    1.5050    5.1000 H   0  0  0  0  0  0  0  0  0  0  0  0
   -1.2790   -0.2720    5.1900 H   0  0  0  0  0  0  0  0  0  0  0  0
    0.8490   -0.2820    3.9170 H   0  0  0  0  0  0  0  0  0  0  0  0
    0.8040    1.4950    3.8270 H   0  0  0  0  0  0  0  0  0  0  0  0
    0.8630    1.6220    6.3030 H   0  0  0  0  0  0  0  0  0  0  0  0
    0.9080   -0.1550    6.3930 H   0  0  0  0  0  0  0  0  0  0  0  0
    2.9010   -1.3780    5.7230 H   0  0  0  0  0  0  0  0  0  0  0  0
    6.4630    0.6890    5.2070 H   0  0  0  0  0  0  0  0  0  0  0  0
    5.2830    2.8510    5.2240 H   0  0  0  0  0  0  0  0  0  0  0  0
    2.8130    2.8850    5.4990 H   0  0  0  0  0  0  0  0  0  0  0  0
   -3.4660   -0.3880    3.9880 H   0  0  0  0  0  0  0  0  0  0  0  0
   -3.5110    1.3890    3.8980 H   0  0  0  0  0  0  0  0  0  0  0  0
   -3.5700    1.2620    1.4220 H   0  0  0  0  0  0  0  0  0  0  0  0
   -3.5250   -0.5150    1.5120 H   0  0  0  0  0  0  0  0  0  0  0  0
   -5.6530   -0.5050    2.7850 H   0  0  0  0  0  0  0  0  0  0  0  0
   -5.6980    1.2720    2.6950 H   0  0  0  0  0  0  0  0  0  0  0  0
   -6.0400   -1.8590    0.8080 H   0  0  0  0  0  0  0  0  0  0  0  0
   -7.1130   -1.9980   -1.4040 H   0  0  0  0  0  0  0  0  0  0  0  0
   -7.7040    0.0610   -2.6180 H   0  0  0  0  0  0  0  0  0  0  0  0
   -7.2230    2.2600   -1.6190 H   0  0  0  0  0  0  0  0  0  0  0  0
   -6.1540    2.3990    0.5950 H   0  0  0  0  0  0  0  0  0  0  0  0
  1  2  2  0  0  0  0
  1  6  1  0  0  0  0
  1 13  1  0  0  0  0
  2  3  1  0  0  0  0
  2 46  1  0  0  0  0
  3  4  2  0  0  0  0
  3  7  1  0  0  0  0
  4  5  1  0  0  0  0
  4  9  1  0  0  0  0
  5  6  2  0  0  0  0
  5 11  1  0  0  0  0
  6 47  1  0  0  0  0
  7  8  1  0  0  0  0
  8 48  1  0  0  0  0
  8 49  1  0  0  0  0
  8 50  1  0  0  0  0
  9 10  1  0  0  0  0
 10 51  1  0  0  0  0
 10 52  1  0  0  0  0
 10 53  1  0  0  0  0
 11 12  1  0  0  0  0
 12 54  1  0  0  0  0
 12 55  1  0  0  0  0
 12 56  1  0  0  0  0
 13 14  1  0  0  0  0
 13 15  1  0  0  0  0
 13 16  1  0  0  0  0
 16 17  2  0  0  0  0
 16 18  1  0  0  0  0
 18 19  1  0  0  0  0
 18 23  1  0  0  0  0
 19 20  1  0  0  0  0
 19 57  1  0  0  0  0
 19 58  1  0  0  0  0
 20 21  1  0  0  0  0
 20 59  1  0  0  0  0
 20 60  1  0  0  0  0
 21 22  1  0  0  0  0
 21 61  1  0  0  0  0
 21 62  1  0  0  0  0
 22 23  1  0  0  0  0
 22 63  1  0  0  0  0
 22 64  1  0  0  0  0
 23 24  1  0  0  0  0
 23 65  1  0  0  0  0
 24 25  2  0  0  0  0
 24 26  1  0  0  0  0
 26 27  1  0  0  0  0
 27 28  1  0  0  0  0
 27 37  1  0  0  0  0
 27 66  1  0  0  0  0
 28 29  1  0  0  0  0
 28 67  1  0  0  0  0
 28 68  1  0  0  0  0
 29 30  1  0  0  0  0
 29 69  1  0  0  0  0
 29 70  1  0  0  0  0
 30 31  1  0  0  0  0
 30 71  1  0  0  0  0
 30 72  1  0  0  0  0
 31 32  2  0  0  0  0
 31 36  1  0  0  0  0
 32 33  1  0  0  0  0
 32 73  1  0  0  0  0
 33 34  2  0  0  0  0
 34 35  1  0  0  0  0
 34 74  1  0  0  0  0
 35 36  2  0  0  0  0
 35 75  1  0  0  0  0
 36 76  1  0  0  0  0
 37 38  1  0  0  0  0
 37 77  1  0  0  0  0
 37 78  1  0  0  0  0
 38 39  1  0  0  0  0
 38 79  1  0  0  0  0
 38 80  1  0  0  0  0
 39 40  1  0  0  0  0
 39 81  1  0  0  0  0
 39 82  1  0  0  0  0
 40 41  2  0  0  0  0
 40 45  1  0  0  0  0
 41 42  1  0  0  0  0
 41 83  1  0  0  0  0
 42 43  2  0  0  0  0
 42 84  1  0  0  0  0
 43 44  1  0  0  0  0
 43 85  1  0  0  0  0
 44 45  2  0  0  0  0
 44 86  1  0  0  0  0
 45 87  1  0  0  0  0
M  END
> <OPENEYE_ISO_SMILES>
COc1cc(cc(c1OC)OC)C(C(=O)N2CCCC[C@H]2C(=O)O[C@@H](CCCc3ccccc3)CCCc4cccnc4)(F)F

> <OPENEYE_INCHI>
InChI=1S/C35H42F2N2O6/c1-42-30-22-27(23-31(43-2)32(30)44-3)35(36,37)34(41)39-21-8-7-19-29(39)33(40)45-28(17-9-14-25-12-5-4-6-13-25)18-10-15-26-16-11-20-38-24-26/h4-6,11-13,16,20,22-24,28-29H,7-10,14-15,17-19,21H2,1-3H3/t28-,29-/m0/s1

> <OPENEYE_INCHIKEY>
NBYCDVVSYOMFMS-VMPREFPWSA-N

> <FORMULA>
C35H42F2N2O6

$$$$
