002
  -OEChem-08302413003D

 67 67  0     1  0  0  0  0  0999 V2000
   -1.0360    0.2930    0.4470 C   0  0  1  0  0  0  0  0  0  0  0  0
   -1.0410    1.8040    0.6850 C   0  0  2  0  0  0  0  0  0  0  0  0
   -2.2880    2.1910    1.4820 C   0  0  0  0  0  0  0  0  0  0  0  0
   -2.2010    1.5950    2.8880 C   0  0  0  0  0  0  0  0  0  0  0  0
    1.2980   -0.4000    0.5280 C   0  0  0  0  0  0  0  0  0  0  0  0
   -2.2030   -0.0810   -0.4310 C   0  0  0  0  0  0  0  0  0  0  0  0
   -4.5740   -0.5480   -0.7450 C   0  0  1  0  0  0  0  0  0  0  0  0
   -5.7050   -1.0250    0.1680 C   0  0  0  0  0  0  0  0  0  0  0  0
    3.1020    1.7430   -0.0500 C   0  0  0  0  0  0  0  0  0  0  0  0
    3.0510    0.5390   -0.9540 C   0  0  0  0  0  0  0  0  0  0  0  0
   -5.0720    0.5770   -1.6160 C   0  0  0  0  0  0  0  0  0  0  0  0
   -1.0480    2.5330   -0.6600 C   0  0  0  0  0  0  0  0  0  0  0  0
    0.2140   -0.0940   -0.2120 N   0  0  0  0  0  0  0  0  0  0  0  0
   -2.0160   -0.3880   -1.5890 O   0  0  0  0  0  0  0  0  0  0  0  0
   -4.5460    1.6630   -1.5590 O   0  0  0  0  0  0  0  0  0  0  0  0
    3.4910    4.0790    0.3000 O   0  0  0  0  0  0  0  0  0  0  0  0
   -5.2270   -2.2280    0.9840 C   0  0  0  0  0  0  0  0  0  0  0  0
   -6.2950   -2.6010    2.0150 C   0  0  0  0  0  0  0  0  0  0  0  0
   -4.9840   -3.4150    0.0500 C   0  0  0  0  0  0  0  0  0  0  0  0
    3.4430    2.9470   -0.5490 N   0  0  0  0  0  0  0  0  0  0  0  0
    2.8360    1.6290    1.1280 O   0  0  0  0  0  0  0  0  0  0  0  0
    2.6150   -0.6860   -0.1480 C   0  0  1  0  0  0  0  0  0  0  0  0
    3.6730   -1.0040    0.9110 C   0  0  0  0  0  0  0  0  0  0  0  0
    1.2150   -0.4460    1.7370 O   0  0  0  0  0  0  0  0  0  0  0  0
   -3.4540   -0.0740    0.0710 N   0  0  0  0  0  0  0  0  0  0  0  0
   -6.1010    0.3730   -2.4530 O   0  0  0  0  0  0  0  0  0  0  0  0
    4.9450   -1.4430    0.2330 C   0  0  0  0  0  0  0  0  0  0  0  0
    5.9550   -0.5280    0.0000 C   0  0  0  0  0  0  0  0  0  0  0  0
    7.1220   -0.9310   -0.6220 C   0  0  0  0  0  0  0  0  0  0  0  0
    7.2800   -2.2480   -1.0100 C   0  0  0  0  0  0  0  0  0  0  0  0
    6.2700   -3.1630   -0.7760 C   0  0  0  0  0  0  0  0  0  0  0  0
    5.1050   -2.7610   -0.1510 C   0  0  0  0  0  0  0  0  0  0  0  0
   -1.1200   -0.2260    1.4020 H   0  0  0  0  0  0  0  0  0  0  0  0
   -0.1500    2.0860    1.2460 H   0  0  0  0  0  0  0  0  0  0  0  0
   -3.1750    1.8050    0.9780 H   0  0  0  0  0  0  0  0  0  0  0  0
   -2.3530    3.2770    1.5510 H   0  0  0  0  0  0  0  0  0  0  0  0
   -3.0410    1.9490    3.4860 H   0  0  0  0  0  0  0  0  0  0  0  0
   -2.2330    0.5070    2.8250 H   0  0  0  0  0  0  0  0  0  0  0  0
   -1.2670    1.9050    3.3560 H   0  0  0  0  0  0  0  0  0  0  0  0
   -4.2410   -1.3730   -1.3740 H   0  0  0  0  0  0  0  0  0  0  0  0
   -5.9920   -0.2190    0.8430 H   0  0  0  0  0  0  0  0  0  0  0  0
   -6.5630   -1.3150   -0.4380 H   0  0  0  0  0  0  0  0  0  0  0  0
    4.0390    0.3610   -1.3790 H   0  0  0  0  0  0  0  0  0  0  0  0
    2.3370    0.7180   -1.7580 H   0  0  0  0  0  0  0  0  0  0  0  0
   -0.9610    3.6060   -0.4930 H   0  0  0  0  0  0  0  0  0  0  0  0
   -0.2080    2.1890   -1.2640 H   0  0  0  0  0  0  0  0  0  0  0  0
   -1.9810    2.3210   -1.1820 H   0  0  0  0  0  0  0  0  0  0  0  0
    0.2610   -0.1300   -1.1800 H   0  0  0  0  0  0  0  0  0  0  0  0
    3.7530    4.8300   -0.2490 H   0  0  0  0  0  0  0  0  0  0  0  0
   -4.3000   -1.9740    1.4970 H   0  0  0  0  0  0  0  0  0  0  0  0
   -5.9940   -3.5090    2.5370 H   0  0  0  0  0  0  0  0  0  0  0  0
   -6.4060   -1.7890    2.7330 H   0  0  0  0  0  0  0  0  0  0  0  0
   -7.2450   -2.7700    1.5090 H   0  0  0  0  0  0  0  0  0  0  0  0
   -4.2240   -3.1490   -0.6850 H   0  0  0  0  0  0  0  0  0  0  0  0
   -4.6440   -4.2720    0.6310 H   0  0  0  0  0  0  0  0  0  0  0  0
   -5.9110   -3.6690   -0.4630 H   0  0  0  0  0  0  0  0  0  0  0  0
    3.6560    3.0390   -1.4910 H   0  0  0  0  0  0  0  0  0  0  0  0
    2.5020   -1.5400   -0.8160 H   0  0  0  0  0  0  0  0  0  0  0  0
    3.8680   -0.1130    1.5080 H   0  0  0  0  0  0  0  0  0  0  0  0
    3.3110   -1.8030    1.5580 H   0  0  0  0  0  0  0  0  0  0  0  0
   -3.6120    0.2450    0.9740 H   0  0  0  0  0  0  0  0  0  0  0  0
   -6.4210    1.0940   -3.0120 H   0  0  0  0  0  0  0  0  0  0  0  0
    5.8320    0.5010    0.3030 H   0  0  0  0  0  0  0  0  0  0  0  0
    7.9110   -0.2160   -0.8040 H   0  0  0  0  0  0  0  0  0  0  0  0
    8.1910   -2.5630   -1.4960 H   0  0  0  0  0  0  0  0  0  0  0  0
    6.3930   -4.1920   -1.0800 H   0  0  0  0  0  0  0  0  0  0  0  0
    4.3160   -3.4760    0.0320 H   0  0  0  0  0  0  0  0  0  0  0  0
  1  2  1  0  0  0  0
  1  6  1  0  0  0  0
  1 13  1  0  0  0  0
  1 33  1  0  0  0  0
  2  3  1  0  0  0  0
  2 12  1  0  0  0  0
  2 34  1  0  0  0  0
  3  4  1  0  0  0  0
  3 35  1  0  0  0  0
  3 36  1  0  0  0  0
  4 37  1  0  0  0  0
  4 38  1  0  0  0  0
  4 39  1  0  0  0  0
  5 13  1  0  0  0  0
  5 22  1  0  0  0  0
  5 24  2  0  0  0  0
  6 14  2  0  0  0  0
  6 25  1  0  0  0  0
  7  8  1  0  0  0  0
  7 11  1  0  0  0  0
  7 25  1  0  0  0  0
  7 40  1  0  0  0  0
  8 17  1  0  0  0  0
  8 41  1  0  0  0  0
  8 42  1  0  0  0  0
  9 10  1  0  0  0  0
  9 20  1  0  0  0  0
  9 21  2  0  0  0  0
 10 22  1  0  0  0  0
 10 43  1  0  0  0  0
 10 44  1  0  0  0  0
 11 15  2  0  0  0  0
 11 26  1  0  0  0  0
 12 45  1  0  0  0  0
 12 46  1  0  0  0  0
 12 47  1  0  0  0  0
 13 48  1  0  0  0  0
 16 20  1  0  0  0  0
 16 49  1  0  0  0  0
 17 18  1  0  0  0  0
 17 19  1  0  0  0  0
 17 50  1  0  0  0  0
 18 51  1  0  0  0  0
 18 52  1  0  0  0  0
 18 53  1  0  0  0  0
 19 54  1  0  0  0  0
 19 55  1  0  0  0  0
 19 56  1  0  0  0  0
 20 57  1  0  0  0  0
 22 23  1  0  0  0  0
 22 58  1  0  0  0  0
 23 27  1  0  0  0  0
 23 59  1  0  0  0  0
 23 60  1  0  0  0  0
 25 61  1  0  0  0  0
 26 62  1  0  0  0  0
 27 28  2  0  0  0  0
 27 32  1  0  0  0  0
 28 29  1  0  0  0  0
 28 63  1  0  0  0  0
 29 30  2  0  0  0  0
 29 64  1  0  0  0  0
 30 31  1  0  0  0  0
 30 65  1  0  0  0  0
 31 32  2  0  0  0  0
 31 66  1  0  0  0  0
 32 67  1  0  0  0  0
M  END
> <OPENEYE_ISO_SMILES>
CC[C@H](C)[C@@H](C(=O)N[C@@H](CC(C)C)C(=O)O)NC(=O)[C@H](Cc1ccccc1)CC(=O)NO

> <OPENEYE_INCHI>
InChI=1S/C23H35N3O6/c1-5-15(4)20(22(29)24-18(23(30)31)11-14(2)3)25-21(28)17(13-19(27)26-32)12-16-9-7-6-8-10-16/h6-10,14-15,17-18,20,32H,5,11-13H2,1-4H3,(H,24,29)(H,25,28)(H,26,27)(H,30,31)/t15-,17+,18-,20-/m0/s1

> <OPENEYE_INCHIKEY>
MWZOULASPWUGJJ-NFBUACBFSA-N

> <FORMULA>
C23H35N3O6

$$$$
