003
  -OEChem-08302413003D

 58 62  0     0  0  0  0  0  0999 V2000
    0.0710   -2.1400   -2.3750 C   0  0  0  0  0  0  0  0  0  0  0  0
    0.0900   -1.3240   -3.3040 O   0  0  0  0  0  0  0  0  0  0  0  0
    0.3740   -1.7730   -1.0410 N   0  0  0  0  0  0  0  0  0  0  0  0
    0.7240   -0.3930   -0.7200 C   0  0  0  0  0  0  0  0  0  0  0  0
    2.2350   -0.1490   -0.8260 C   0  0  0  0  0  0  0  0  0  0  0  0
    2.7740   -0.4480   -2.2260 C   0  0  0  0  0  0  0  0  0  0  0  0
    2.6200    1.2650   -0.3910 C   0  0  0  0  0  0  0  0  0  0  0  0
    0.3370   -2.7370   -0.0320 C   0  0  0  0  0  0  0  0  0  0  0  0
    0.5950   -2.5510    1.2680 N   0  0  0  0  0  0  0  0  0  0  0  0
    0.4220   -3.7760    1.7990 N   0  0  0  0  0  0  0  0  0  0  0  0
    0.6220   -3.9540    3.2200 C   0  0  0  0  0  0  0  0  0  0  0  0
    1.8750   -3.2660    3.6890 C   0  0  0  0  0  0  0  0  0  0  0  0
    1.8650   -1.9370    4.1310 C   0  0  0  0  0  0  0  0  0  0  0  0
    0.6840   -1.1770    4.1590 C   0  0  0  0  0  0  0  0  0  0  0  0
    0.6990    0.1450    4.6040 C   0  0  0  0  0  0  0  0  0  0  0  0
    1.8910    0.7250    5.0250 C   0  0  0  0  0  0  0  0  0  0  0  0
    3.0740   -0.0150    5.0030 C   0  0  0  0  0  0  0  0  0  0  0  0
    3.0780   -1.3470    4.5590 C   0  0  0  0  0  0  0  0  0  0  0  0
    4.2590   -2.1060    4.5300 C   0  0  0  0  0  0  0  0  0  0  0  0
    4.2440   -3.4290    4.0860 C   0  0  0  0  0  0  0  0  0  0  0  0
    3.0510   -4.0090    3.6650 C   0  0  0  0  0  0  0  0  0  0  0  0
    0.0650   -4.7280    0.8900 C   0  0  0  0  0  0  0  0  0  0  0  0
   -0.1710   -6.1100    1.2370 C   0  0  0  0  0  0  0  0  0  0  0  0
    0.8760   -7.0230    1.2100 C   0  0  0  0  0  0  0  0  0  0  0  0
    0.5970   -8.3370    1.5510 C   0  0  0  0  0  0  0  0  0  0  0  0
   -0.6280   -8.7830    1.9080 N   0  0  0  0  0  0  0  0  0  0  0  0
   -1.6200   -7.8650    1.9220 C   0  0  0  0  0  0  0  0  0  0  0  0
   -1.4460   -6.5290    1.5980 C   0  0  0  0  0  0  0  0  0  0  0  0
    0.0040   -4.0710   -0.3120 C   0  0  0  0  0  0  0  0  0  0  0  0
   -0.3200   -4.5550   -1.6210 C   0  0  0  0  0  0  0  0  0  0  0  0
   -0.6060   -5.7280   -1.8380 O   0  0  0  0  0  0  0  0  0  0  0  0
   -0.2620   -3.5240   -2.5910 N   0  0  0  0  0  0  0  0  0  0  0  0
   -0.5720   -3.8870   -3.9710 C   0  0  0  0  0  0  0  0  0  0  0  0
    0.3670   -0.1710    0.2910 H   0  0  0  0  0  0  0  0  0  0  0  0
    0.1880    0.2650   -1.4130 H   0  0  0  0  0  0  0  0  0  0  0  0
    2.7210   -0.8490   -0.1340 H   0  0  0  0  0  0  0  0  0  0  0  0
    2.3920    0.2580   -2.9700 H   0  0  0  0  0  0  0  0  0  0  0  0
    3.8680   -0.3810   -2.2370 H   0  0  0  0  0  0  0  0  0  0  0  0
    2.5000   -1.4600   -2.5410 H   0  0  0  0  0  0  0  0  0  0  0  0
    2.2120    2.0230   -1.0680 H   0  0  0  0  0  0  0  0  0  0  0  0
    3.7090    1.3810   -0.3790 H   0  0  0  0  0  0  0  0  0  0  0  0
    2.2510    1.4760    0.6180 H   0  0  0  0  0  0  0  0  0  0  0  0
    0.6590   -5.0300    3.4280 H   0  0  0  0  0  0  0  0  0  0  0  0
   -0.2620   -3.5670    3.7410 H   0  0  0  0  0  0  0  0  0  0  0  0
    3.0530   -5.0400    3.3210 H   0  0  0  0  0  0  0  0  0  0  0  0
   -0.2680   -1.5950    3.8380 H   0  0  0  0  0  0  0  0  0  0  0  0
   -0.2210    0.7220    4.6220 H   0  0  0  0  0  0  0  0  0  0  0  0
    1.9020    1.7550    5.3720 H   0  0  0  0  0  0  0  0  0  0  0  0
    3.9950    0.4590    5.3380 H   0  0  0  0  0  0  0  0  0  0  0  0
    5.2030   -1.6730    4.8550 H   0  0  0  0  0  0  0  0  0  0  0  0
    5.1640   -4.0060    4.0690 H   0  0  0  0  0  0  0  0  0  0  0  0
    1.8840   -6.7320    0.9350 H   0  0  0  0  0  0  0  0  0  0  0  0
   -2.2880   -5.8450    1.6280 H   0  0  0  0  0  0  0  0  0  0  0  0
    1.3790   -9.0900    1.5470 H   0  0  0  0  0  0  0  0  0  0  0  0
   -2.5960   -8.2430    2.2100 H   0  0  0  0  0  0  0  0  0  0  0  0
    0.3480   -3.9630   -4.5550 H   0  0  0  0  0  0  0  0  0  0  0  0
   -1.2170   -3.1300   -4.4250 H   0  0  0  0  0  0  0  0  0  0  0  0
   -1.0890   -4.8500   -4.0010 H   0  0  0  0  0  0  0  0  0  0  0  0
  1  2  2  0  0  0  0
  1  3  1  0  0  0  0
  1 32  1  0  0  0  0
  3  4  1  0  0  0  0
  3  8  1  0  0  0  0
  4  5  1  0  0  0  0
  4 34  1  0  0  0  0
  4 35  1  0  0  0  0
  5  6  1  0  0  0  0
  5  7  1  0  0  0  0
  5 36  1  0  0  0  0
  6 37  1  0  0  0  0
  6 38  1  0  0  0  0
  6 39  1  0  0  0  0
  7 40  1  0  0  0  0
  7 41  1  0  0  0  0
  7 42  1  0  0  0  0
  8  9  2  0  0  0  0
  8 29  1  0  0  0  0
  9 10  1  0  0  0  0
 10 11  1  0  0  0  0
 10 22  1  0  0  0  0
 11 12  1  0  0  0  0
 11 43  1  0  0  0  0
 11 44  1  0  0  0  0
 12 13  1  0  0  0  0
 12 21  2  0  0  0  0
 13 14  1  0  0  0  0
 13 18  2  0  0  0  0
 14 15  2  0  0  0  0
 14 46  1  0  0  0  0
 15 16  1  0  0  0  0
 15 47  1  0  0  0  0
 16 17  2  0  0  0  0
 16 48  1  0  0  0  0
 17 18  1  0  0  0  0
 17 49  1  0  0  0  0
 18 19  1  0  0  0  0
 19 20  2  0  0  0  0
 19 50  1  0  0  0  0
 20 21  1  0  0  0  0
 20 51  1  0  0  0  0
 21 45  1  0  0  0  0
 22 23  1  0  0  0  0
 22 29  2  0  0  0  0
 23 24  1  0  0  0  0
 23 28  2  0  0  0  0
 24 25  2  0  0  0  0
 24 52  1  0  0  0  0
 25 26  1  0  0  0  0
 25 54  1  0  0  0  0
 26 27  2  0  0  0  0
 27 28  1  0  0  0  0
 27 55  1  0  0  0  0
 28 53  1  0  0  0  0
 29 30  1  0  0  0  0
 30 31  2  0  0  0  0
 30 32  1  0  0  0  0
 32 33  1  0  0  0  0
 33 56  1  0  0  0  0
 33 57  1  0  0  0  0
 33 58  1  0  0  0  0
M  END
> <OPENEYE_ISO_SMILES>
CC(C)Cn1c2c(c(n(n2)Cc3cccc4c3cccc4)c5ccncc5)c(=O)n(c1=O)C

> <OPENEYE_INCHI>
InChI=1S/C26H25N5O2/c1-17(2)15-30-24-22(25(32)29(3)26(30)33)23(19-11-13-27-14-12-19)31(28-24)16-20-9-6-8-18-7-4-5-10-21(18)20/h4-14,17H,15-16H2,1-3H3

> <OPENEYE_INCHIKEY>
NNZDBCPMOOEFTE-UHFFFAOYSA-N

> <FORMULA>
C26H25N5O2

$$$$
