006
  -OEChem-08302413003D

 86 90  0     1  0  0  0  0  0999 V2000
   -2.4280    0.1320   -1.3530 N   0  0  0  0  0  0  0  0  0  0  0  0
   -1.0200    0.1990   -0.9510 C   0  0  1  0  0  0  0  0  0  0  0  0
   -0.2650   -0.0640   -3.2310 O   0  0  0  0  0  0  0  0  0  0  0  0
   -0.5140   -1.2100   -0.6330 C   0  0  0  0  0  0  0  0  0  0  0  0
    2.0660    0.1110   -2.0150 O   0  0  0  0  0  0  0  0  0  0  0  0
   -1.2470   -1.7480    0.5680 C   0  0  0  0  0  0  0  0  0  0  0  0
   -2.4210   -2.4590    0.4000 C   0  0  0  0  0  0  0  0  0  0  0  0
   -3.0940   -2.9520    1.5030 C   0  0  0  0  0  0  0  0  0  0  0  0
   -2.5930   -2.7360    2.7720 C   0  0  0  0  0  0  0  0  0  0  0  0
   -1.4190   -2.0260    2.9400 C   0  0  0  0  0  0  0  0  0  0  0  0
   -0.7430   -1.5370    1.8380 C   0  0  0  0  0  0  0  0  0  0  0  0
   -0.1920    0.7940   -2.0910 C   0  0  2  0  0  0  0  0  0  0  0  0
    1.2440    0.9250   -1.6520 C   0  0  0  0  0  0  0  0  0  0  0  0
    4.8510    0.7050    0.2400 N   0  0  0  0  0  0  0  0  0  0  0  0
    7.4730    0.6830    0.5200 O   0  0  0  0  0  0  0  0  0  0  0  0
    5.3620   -0.4910    0.9150 C   0  0  1  0  0  0  0  0  0  0  0  0
    5.4140   -1.6570   -0.0490 C   0  0  0  0  0  0  0  0  0  0  0  0
    4.4910   -2.0880   -0.9870 C   0  0  0  0  0  0  0  0  0  0  0  0
    4.7590   -3.1950   -1.7680 C   0  0  0  0  0  0  0  0  0  0  0  0
    6.8220   -0.2710    1.3620 C   0  0  1  0  0  0  0  0  0  0  0  0
    6.6080   -2.3360    0.1040 C   0  0  0  0  0  0  0  0  0  0  0  0
    6.8750   -3.4460   -0.6800 C   0  0  0  0  0  0  0  0  0  0  0  0
    5.9520   -3.8750   -1.6150 C   0  0  0  0  0  0  0  0  0  0  0  0
    7.4390   -1.6740    1.1820 C   0  0  0  0  0  0  0  0  0  0  0  0
   -9.7510   -0.0870   -0.2690 C   0  0  0  0  0  0  0  0  0  0  0  0
   -3.1040    0.1910    0.7590 O   0  0  0  0  0  0  0  0  0  0  0  0
   -9.0260   -1.2550   -0.1210 C   0  0  0  0  0  0  0  0  0  0  0  0
   -5.6740    0.0830    0.3340 O   0  0  0  0  0  0  0  0  0  0  0  0
   -7.6610   -1.2010    0.0800 C   0  0  0  0  0  0  0  0  0  0  0  0
   -6.8710   -2.4740    0.2410 C   0  0  0  0  0  0  0  0  0  0  0  0
   -7.0510    2.5330    0.0450 C   0  0  0  0  0  0  0  0  0  0  0  0
   -7.0170    0.0270    0.1350 C   0  0  0  0  0  0  0  0  0  0  0  0
   -7.7470    1.1970   -0.0140 C   0  0  0  0  0  0  0  0  0  0  0  0
   -9.1120    1.1380   -0.2150 C   0  0  0  0  0  0  0  0  0  0  0  0
   -3.3970    0.1350   -0.4160 C   0  0  0  0  0  0  0  0  0  0  0  0
   -4.8450    0.0670   -0.8300 C   0  0  0  0  0  0  0  0  0  0  0  0
    0.6450    2.9150   -0.3060 C   0  0  0  0  0  0  0  0  0  0  0  0
    1.6150    1.9490   -0.8570 N   0  0  0  0  0  0  0  0  0  0  0  0
    2.7570    0.1820    0.7520 O   0  0  0  0  0  0  0  0  0  0  0  0
    1.5000    3.5280    1.2040 S   0  0  0  0  0  0  0  0  0  0  0  0
    3.1800    3.3960    0.4590 C   0  0  0  0  0  0  0  0  0  0  0  0
    3.5300    4.6560   -0.3350 C   0  0  0  0  0  0  0  0  0  0  0  0
    4.2350    3.1120    1.5300 C   0  0  0  0  0  0  0  0  0  0  0  0
    3.0010    2.1810   -0.4790 C   0  0  1  0  0  0  0  0  0  0  0  0
    3.5260    0.9510    0.2150 C   0  0  0  0  0  0  0  0  0  0  0  0
   -2.6620    0.0910   -2.2930 H   0  0  0  0  0  0  0  0  0  0  0  0
   -0.9250    0.8270   -0.0650 H   0  0  0  0  0  0  0  0  0  0  0  0
    0.0680   -0.9580   -3.0730 H   0  0  0  0  0  0  0  0  0  0  0  0
   -0.6910   -1.8610   -1.4890 H   0  0  0  0  0  0  0  0  0  0  0  0
    0.5540   -1.1720   -0.4200 H   0  0  0  0  0  0  0  0  0  0  0  0
   -2.8130   -2.6280   -0.5920 H   0  0  0  0  0  0  0  0  0  0  0  0
   -4.0110   -3.5070    1.3710 H   0  0  0  0  0  0  0  0  0  0  0  0
   -3.1180   -3.1210    3.6340 H   0  0  0  0  0  0  0  0  0  0  0  0
   -1.0270   -1.8560    3.9320 H   0  0  0  0  0  0  0  0  0  0  0  0
    0.1750   -0.9820    1.9690 H   0  0  0  0  0  0  0  0  0  0  0  0
   -0.5840    1.7770   -2.3500 H   0  0  0  0  0  0  0  0  0  0  0  0
    5.4660    1.3190   -0.1890 H   0  0  0  0  0  0  0  0  0  0  0  0
    8.3940    0.8560    0.7600 H   0  0  0  0  0  0  0  0  0  0  0  0
    4.7360   -0.7360    1.7730 H   0  0  0  0  0  0  0  0  0  0  0  0
    3.5580   -1.5580   -1.1070 H   0  0  0  0  0  0  0  0  0  0  0  0
    4.0360   -3.5290   -2.4980 H   0  0  0  0  0  0  0  0  0  0  0  0
    6.8650    0.0430    2.4050 H   0  0  0  0  0  0  0  0  0  0  0  0
    7.8080   -3.9770   -0.5610 H   0  0  0  0  0  0  0  0  0  0  0  0
    6.1640   -4.7410   -2.2250 H   0  0  0  0  0  0  0  0  0  0  0  0
    8.4780   -1.5920    0.8610 H   0  0  0  0  0  0  0  0  0  0  0  0
    7.3730   -2.2390    2.1110 H   0  0  0  0  0  0  0  0  0  0  0  0
  -10.8180   -0.1320   -0.4310 H   0  0  0  0  0  0  0  0  0  0  0  0
   -9.5280   -2.2110   -0.1640 H   0  0  0  0  0  0  0  0  0  0  0  0
   -6.5290   -2.8160   -0.7360 H   0  0  0  0  0  0  0  0  0  0  0  0
   -6.0100   -2.2890    0.8830 H   0  0  0  0  0  0  0  0  0  0  0  0
   -7.5030   -3.2390    0.6930 H   0  0  0  0  0  0  0  0  0  0  0  0
   -6.7310    2.8200   -0.9560 H   0  0  0  0  0  0  0  0  0  0  0  0
   -7.7370    3.2830    0.4370 H   0  0  0  0  0  0  0  0  0  0  0  0
   -6.1800    2.4600    0.6980 H   0  0  0  0  0  0  0  0  0  0  0  0
   -9.6810    2.0490   -0.3310 H   0  0  0  0  0  0  0  0  0  0  0  0
   -5.0200   -0.8530   -1.3880 H   0  0  0  0  0  0  0  0  0  0  0  0
   -5.0830    0.9240   -1.4590 H   0  0  0  0  0  0  0  0  0  0  0  0
    0.4690    3.7290   -1.0090 H   0  0  0  0  0  0  0  0  0  0  0  0
   -0.2910    2.4190   -0.0490 H   0  0  0  0  0  0  0  0  0  0  0  0
    3.5350    5.5170    0.3340 H   0  0  0  0  0  0  0  0  0  0  0  0
    4.5160    4.5400   -0.7840 H   0  0  0  0  0  0  0  0  0  0  0  0
    2.7890    4.8090   -1.1190 H   0  0  0  0  0  0  0  0  0  0  0  0
    3.9860    2.1870    2.0490 H   0  0  0  0  0  0  0  0  0  0  0  0
    5.2130    3.0130    1.0590 H   0  0  0  0  0  0  0  0  0  0  0  0
    4.2580    3.9350    2.2450 H   0  0  0  0  0  0  0  0  0  0  0  0
    3.5870    2.3460   -1.3830 H   0  0  0  0  0  0  0  0  0  0  0  0
  1 35  1  0  0  0  0
  1  2  1  0  0  0  0
  1 46  1  0  0  0  0
  2  4  1  0  0  0  0
  2 12  1  0  0  0  0
  2 47  1  0  0  0  0
  3 12  1  0  0  0  0
  3 48  1  0  0  0  0
  4  6  1  0  0  0  0
  4 49  1  0  0  0  0
  4 50  1  0  0  0  0
  5 13  2  0  0  0  0
  6 11  2  0  0  0  0
  6  7  1  0  0  0  0
  7  8  2  0  0  0  0
  7 51  1  0  0  0  0
  8  9  1  0  0  0  0
  8 52  1  0  0  0  0
  9 10  2  0  0  0  0
  9 53  1  0  0  0  0
 10 11  1  0  0  0  0
 10 54  1  0  0  0  0
 11 55  1  0  0  0  0
 12 13  1  0  0  0  0
 12 56  1  0  0  0  0
 13 38  1  0  0  0  0
 14 16  1  0  0  0  0
 14 45  1  0  0  0  0
 14 57  1  0  0  0  0
 15 20  1  0  0  0  0
 15 58  1  0  0  0  0
 16 17  1  0  0  0  0
 16 20  1  0  0  0  0
 16 59  1  0  0  0  0
 17 18  2  0  0  0  0
 17 21  1  0  0  0  0
 18 19  1  0  0  0  0
 18 60  1  0  0  0  0
 19 23  2  0  0  0  0
 19 61  1  0  0  0  0
 20 24  1  0  0  0  0
 20 62  1  0  0  0  0
 21 22  2  0  0  0  0
 21 24  1  0  0  0  0
 22 23  1  0  0  0  0
 22 63  1  0  0  0  0
 23 64  1  0  0  0  0
 24 65  1  0  0  0  0
 24 66  1  0  0  0  0
 25 34  2  0  0  0  0
 25 27  1  0  0  0  0
 25 67  1  0  0  0  0
 26 35  2  0  0  0  0
 27 29  2  0  0  0  0
 27 68  1  0  0  0  0
 28 32  1  0  0  0  0
 28 36  1  0  0  0  0
 29 32  1  0  0  0  0
 29 30  1  0  0  0  0
 30 69  1  0  0  0  0
 30 70  1  0  0  0  0
 30 71  1  0  0  0  0
 31 33  1  0  0  0  0
 31 72  1  0  0  0  0
 31 73  1  0  0  0  0
 31 74  1  0  0  0  0
 32 33  2  0  0  0  0
 33 34  1  0  0  0  0
 34 75  1  0  0  0  0
 35 36  1  0  0  0  0
 36 76  1  0  0  0  0
 36 77  1  0  0  0  0
 37 40  1  0  0  0  0
 37 38  1  0  0  0  0
 37 78  1  0  0  0  0
 37 79  1  0  0  0  0
 38 44  1  0  0  0  0
 39 45  2  0  0  0  0
 40 41  1  0  0  0  0
 41 43  1  0  0  0  0
 41 44  1  0  0  0  0
 41 42  1  0  0  0  0
 42 80  1  0  0  0  0
 42 81  1  0  0  0  0
 42 82  1  0  0  0  0
 43 83  1  0  0  0  0
 43 84  1  0  0  0  0
 43 85  1  0  0  0  0
 44 45  1  0  0  0  0
 44 86  1  0  0  0  0
M  END
> <OPENEYE_ISO_SMILES>
Cc1cccc(c1OCC(=O)N[C@@H](Cc2ccccc2)[C@@H](C(=O)N3CSC([C@H]3C(=O)N[C@H]4c5ccccc5C[C@H]4O)(C)C)O)C

> <OPENEYE_INCHI>
InChI=1S/C35H41N3O6S/c1-21-11-10-12-22(2)31(21)44-19-28(40)36-26(17-23-13-6-5-7-14-23)30(41)34(43)38-20-45-35(3,4)32(38)33(42)37-29-25-16-9-8-15-24(25)18-27(29)39/h5-16,26-27,29-30,32,39,41H,17-20H2,1-4H3,(H,36,40)(H,37,42)/t26-,27+,29-,30-,32+/m0/s1

> <OPENEYE_INCHIKEY>
KKTYZYHUPKXLPL-RIQJEONASA-N

> <FORMULA>
C35H41N3O6S

$$$$
