007
  -OEChem-08302413003D

 30 31  0     0  0  0  0  0  0999 V2000
   -1.1690   -0.8110    1.4980 C   0  0  0  0  0  0  0  0  0  0  0  0
   -1.2690   -0.0940    2.8670 C   0  0  0  0  0  0  0  0  0  0  0  0
    0.1130   -0.2350    0.8630 C   0  0  0  0  0  0  0  0  0  0  0  0
   -0.7890    1.3400    2.5370 C   0  0  0  0  0  0  0  0  0  0  0  0
    0.3540    1.1320    1.5240 C   0  0  0  0  0  0  0  0  0  0  0  0
   -0.0770   -0.0660   -0.6220 C   0  0  0  0  0  0  0  0  0  0  0  0
   -0.9720   -0.8720   -1.3000 C   0  0  0  0  0  0  0  0  0  0  0  0
    0.6380    0.8980   -1.3050 C   0  0  0  0  0  0  0  0  0  0  0  0
   -1.1470   -0.7170   -2.6620 C   0  0  0  0  0  0  0  0  0  0  0  0
    0.4660    1.0500   -2.6680 C   0  0  0  0  0  0  0  0  0  0  0  0
   -0.4270    0.2440   -3.3460 C   0  0  0  0  0  0  0  0  0  0  0  0
    1.2970   -1.1660    1.1360 C   0  0  0  0  0  0  0  0  0  0  0  0
    2.5320   -0.5460    0.6380 N   0  0  0  0  0  0  0  0  0  0  0  0
   -2.0370   -0.5800    0.8810 H   0  0  0  0  0  0  0  0  0  0  0  0
   -1.0750   -1.8880    1.6380 H   0  0  0  0  0  0  0  0  0  0  0  0
   -2.3000   -0.0840    3.2230 H   0  0  0  0  0  0  0  0  0  0  0  0
   -0.6110   -0.5630    3.5990 H   0  0  0  0  0  0  0  0  0  0  0  0
   -1.5960    1.9190    2.0880 H   0  0  0  0  0  0  0  0  0  0  0  0
   -0.4180    1.8340    3.4350 H   0  0  0  0  0  0  0  0  0  0  0  0
    1.3150    1.1340    2.0390 H   0  0  0  0  0  0  0  0  0  0  0  0
    0.3330    1.9200    0.7700 H   0  0  0  0  0  0  0  0  0  0  0  0
   -1.5340   -1.6230   -0.7650 H   0  0  0  0  0  0  0  0  0  0  0  0
    1.3370    1.5280   -0.7750 H   0  0  0  0  0  0  0  0  0  0  0  0
   -1.8460   -1.3470   -3.1920 H   0  0  0  0  0  0  0  0  0  0  0  0
    1.0290    1.8020   -3.2030 H   0  0  0  0  0  0  0  0  0  0  0  0
   -0.5630    0.3650   -4.4110 H   0  0  0  0  0  0  0  0  0  0  0  0
    1.1360   -2.1160    0.6280 H   0  0  0  0  0  0  0  0  0  0  0  0
    1.3840   -1.3370    2.2090 H   0  0  0  0  0  0  0  0  0  0  0  0
    3.2930   -1.1410    0.9280 H   0  0  0  0  0  0  0  0  0  0  0  0
    2.4940   -0.5940   -0.3680 H   0  0  0  0  0  0  0  0  0  0  0  0
  1  2  1  0  0  0  0
  1  3  1  0  0  0  0
  1 14  1  0  0  0  0
  1 15  1  0  0  0  0
  2  4  1  0  0  0  0
  2 16  1  0  0  0  0
  2 17  1  0  0  0  0
  3  5  1  0  0  0  0
  3  6  1  0  0  0  0
  3 12  1  0  0  0  0
  4  5  1  0  0  0  0
  4 18  1  0  0  0  0
  4 19  1  0  0  0  0
  5 20  1  0  0  0  0
  5 21  1  0  0  0  0
  6  7  1  0  0  0  0
  6  8  2  0  0  0  0
  7  9  2  0  0  0  0
  7 22  1  0  0  0  0
  8 10  1  0  0  0  0
  8 23  1  0  0  0  0
  9 11  1  0  0  0  0
  9 24  1  0  0  0  0
 10 11  2  0  0  0  0
 10 25  1  0  0  0  0
 11 26  1  0  0  0  0
 12 13  1  0  0  0  0
 12 27  1  0  0  0  0
 12 28  1  0  0  0  0
 13 29  1  0  0  0  0
 13 30  1  0  0  0  0
M  END
> <OPENEYE_ISO_SMILES>
c1ccc(cc1)C2(CCCC2)CN

> <OPENEYE_INCHI>
InChI=1S/C12H17N/c13-10-12(8-4-5-9-12)11-6-2-1-3-7-11/h1-3,6-7H,4-5,8-10,13H2

> <OPENEYE_INCHIKEY>
SJWOFBVBNFLWLP-UHFFFAOYSA-N

> <FORMULA>
C12H17N

$$$$
