009
  -OEChem-08302413003D

 88 92  0     1  0  0  0  0  0999 V2000
   -1.6420    0.6100    0.9230 C   0  0  0  0  0  0  0  0  0  0  0  0
   -1.6690   -0.0470    1.9410 O   0  0  0  0  0  0  0  0  0  0  0  0
   -0.7950    0.2790   -0.0720 N   0  0  0  0  0  0  0  0  0  0  0  0
    0.1690   -0.8080    0.1190 C   0  0  1  0  0  0  0  0  0  0  0  0
    0.0330   -1.8170   -1.0230 C   0  0  0  0  0  0  0  0  0  0  0  0
   -1.3090   -2.4970   -0.9350 C   0  0  0  0  0  0  0  0  0  0  0  0
   -2.4200   -1.9140   -1.5160 C   0  0  0  0  0  0  0  0  0  0  0  0
   -1.4290   -3.7080   -0.2780 C   0  0  0  0  0  0  0  0  0  0  0  0
   -3.6500   -2.5380   -1.4350 C   0  0  0  0  0  0  0  0  0  0  0  0
   -2.6590   -4.3320   -0.1970 C   0  0  0  0  0  0  0  0  0  0  0  0
   -3.7710   -3.7460   -0.7730 C   0  0  0  0  0  0  0  0  0  0  0  0
    1.5880   -0.2360    0.1280 C   0  0  2  0  0  0  0  0  0  0  0  0
    1.8870    0.3140   -1.1570 O   0  0  0  0  0  0  0  0  0  0  0  0
    2.5850   -1.3500    0.4510 C   0  0  0  0  0  0  0  0  0  0  0  0
    3.9330   -0.7790    0.5770 N   0  0  0  0  0  0  0  0  0  0  0  0
    4.9190   -1.8230    0.8880 C   0  0  0  0  0  0  0  0  0  0  0  0
    6.2870   -1.2010    1.0090 C   0  0  0  0  0  0  0  0  0  0  0  0
    6.7300   -0.7410    2.2360 C   0  0  0  0  0  0  0  0  0  0  0  0
    7.9840   -0.1700    2.3520 C   0  0  0  0  0  0  0  0  0  0  0  0
    8.7990   -0.0580    1.2420 C   0  0  0  0  0  0  0  0  0  0  0  0
    8.3570   -0.5190    0.0090 C   0  0  0  0  0  0  0  0  0  0  0  0
    7.0980   -1.0960   -0.1030 C   0  0  0  0  0  0  0  0  0  0  0  0
    9.1780   -0.4060   -1.1160 N   0  0  0  0  0  0  0  0  0  0  0  0
   10.5070    0.1990   -0.9950 C   0  0  0  0  0  0  0  0  0  0  0  0
    8.7100   -0.8930   -2.4160 C   0  0  0  0  0  0  0  0  0  0  0  0
   -2.5600    1.7950    0.7660 C   0  0  1  0  0  0  0  0  0  0  0  0
   -2.9860    1.9370   -0.6340 N   0  0  0  0  0  0  0  0  0  0  0  0
   -4.3180    1.8130   -0.7040 C   0  0  0  0  0  0  0  0  0  0  0  0
   -4.9360    1.8880   -1.7480 O   0  0  0  0  0  0  0  0  0  0  0  0
   -4.9060    1.5980    0.4800 N   0  0  0  0  0  0  0  0  0  0  0  0
   -3.8780    1.5630    1.5310 C   0  0  0  0  0  0  0  0  0  0  0  0
   -6.3450    1.4260    0.6940 C   0  0  0  0  0  0  0  0  0  0  0  0
   -6.7130   -0.0220    0.4950 C   0  0  0  0  0  0  0  0  0  0  0  0
   -6.8070   -0.8670    1.5840 C   0  0  0  0  0  0  0  0  0  0  0  0
   -6.9620   -0.5030   -0.7770 C   0  0  0  0  0  0  0  0  0  0  0  0
   -7.2990   -1.8310   -0.9600 C   0  0  0  0  0  0  0  0  0  0  0  0
   -7.1440   -2.1950    1.4020 C   0  0  0  0  0  0  0  0  0  0  0  0
   -7.3870   -2.6780    0.1290 C   0  0  0  0  0  0  0  0  0  0  0  0
   -1.8730    3.0730    1.2510 C   0  0  0  0  0  0  0  0  0  0  0  0
    1.6480    3.1250   -0.1100 C   0  0  0  0  0  0  0  0  0  0  0  0
    1.4970    3.9100   -1.2370 C   0  0  0  0  0  0  0  0  0  0  0  0
    0.2550    4.4240   -1.5600 C   0  0  0  0  0  0  0  0  0  0  0  0
   -0.8360    4.1530   -0.7540 C   0  0  0  0  0  0  0  0  0  0  0  0
   -0.6840    3.3680    0.3730 C   0  0  0  0  0  0  0  0  0  0  0  0
    0.5580    2.8540    0.6960 C   0  0  0  0  0  0  0  0  0  0  0  0
   -0.8230    0.7590   -0.9140 H   0  0  0  0  0  0  0  0  0  0  0  0
   -0.0280   -1.3060    1.0690 H   0  0  0  0  0  0  0  0  0  0  0  0
    0.1150   -1.2980   -1.9780 H   0  0  0  0  0  0  0  0  0  0  0  0
    0.8240   -2.5630   -0.9450 H   0  0  0  0  0  0  0  0  0  0  0  0
   -2.3250   -0.9700   -2.0330 H   0  0  0  0  0  0  0  0  0  0  0  0
   -0.5600   -4.1660    0.1720 H   0  0  0  0  0  0  0  0  0  0  0  0
   -4.5180   -2.0820   -1.8880 H   0  0  0  0  0  0  0  0  0  0  0  0
   -2.7530   -5.2780    0.3160 H   0  0  0  0  0  0  0  0  0  0  0  0
   -4.7320   -4.2330   -0.7100 H   0  0  0  0  0  0  0  0  0  0  0  0
    1.6600    0.5470    0.8830 H   0  0  0  0  0  0  0  0  0  0  0  0
    1.8430   -0.3270   -1.8790 H   0  0  0  0  0  0  0  0  0  0  0  0
    2.3040   -1.8290    1.3890 H   0  0  0  0  0  0  0  0  0  0  0  0
    2.5770   -2.0890   -0.3510 H   0  0  0  0  0  0  0  0  0  0  0  0
    4.1910   -0.2750   -0.2570 H   0  0  0  0  0  0  0  0  0  0  0  0
    4.6540   -2.3050    1.8290 H   0  0  0  0  0  0  0  0  0  0  0  0
    4.9270   -2.5650    0.0890 H   0  0  0  0  0  0  0  0  0  0  0  0
    6.0950   -0.8270    3.1050 H   0  0  0  0  0  0  0  0  0  0  0  0
    8.3270    0.1890    3.3110 H   0  0  0  0  0  0  0  0  0  0  0  0
    9.7780    0.3890    1.3340 H   0  0  0  0  0  0  0  0  0  0  0  0
    6.7530   -1.4590   -1.0600 H   0  0  0  0  0  0  0  0  0  0  0  0
   11.2380   -0.5750   -0.7630 H   0  0  0  0  0  0  0  0  0  0  0  0
   10.7730    0.6810   -1.9350 H   0  0  0  0  0  0  0  0  0  0  0  0
   10.4970    0.9400   -0.1960 H   0  0  0  0  0  0  0  0  0  0  0  0
    8.1920   -0.0900   -2.9400 H   0  0  0  0  0  0  0  0  0  0  0  0
    9.5630   -1.2220   -3.0090 H   0  0  0  0  0  0  0  0  0  0  0  0
    8.0270   -1.7290   -2.2670 H   0  0  0  0  0  0  0  0  0  0  0  0
   -2.3950    2.0950   -1.3870 H   0  0  0  0  0  0  0  0  0  0  0  0
   -3.8680    0.5900    2.0230 H   0  0  0  0  0  0  0  0  0  0  0  0
   -4.0450    2.3590    2.2570 H   0  0  0  0  0  0  0  0  0  0  0  0
   -6.6000    1.7300    1.7090 H   0  0  0  0  0  0  0  0  0  0  0  0
   -6.8940    2.0420   -0.0180 H   0  0  0  0  0  0  0  0  0  0  0  0
   -6.6160   -0.4900    2.5780 H   0  0  0  0  0  0  0  0  0  0  0  0
   -6.8930    0.1590   -1.6280 H   0  0  0  0  0  0  0  0  0  0  0  0
   -7.4940   -2.2070   -1.9530 H   0  0  0  0  0  0  0  0  0  0  0  0
   -7.2170   -2.8560    2.2530 H   0  0  0  0  0  0  0  0  0  0  0  0
   -7.6510   -3.7150   -0.0130 H   0  0  0  0  0  0  0  0  0  0  0  0
   -2.5760    3.9050    1.2020 H   0  0  0  0  0  0  0  0  0  0  0  0
   -1.5400    2.9390    2.2800 H   0  0  0  0  0  0  0  0  0  0  0  0
    2.6180    2.7190    0.1400 H   0  0  0  0  0  0  0  0  0  0  0  0
    2.3490    4.1220   -1.8660 H   0  0  0  0  0  0  0  0  0  0  0  0
    0.1370    5.0380   -2.4410 H   0  0  0  0  0  0  0  0  0  0  0  0
   -1.8060    4.5560   -1.0060 H   0  0  0  0  0  0  0  0  0  0  0  0
    0.6760    2.2400    1.5770 H   0  0  0  0  0  0  0  0  0  0  0  0
  1  2  2  0  0  0  0
  1  3  1  0  0  0  0
  1 26  1  0  0  0  0
  3  4  1  0  0  0  0
  4  5  1  0  0  0  0
  4 12  1  0  0  0  0
  5  6  1  0  0  0  0
  6  7  2  0  0  0  0
  6  8  1  0  0  0  0
  7  9  1  0  0  0  0
  8 10  2  0  0  0  0
  9 11  2  0  0  0  0
 10 11  1  0  0  0  0
 12 13  1  0  0  0  0
 12 14  1  0  0  0  0
 14 15  1  0  0  0  0
 15 16  1  0  0  0  0
 16 17  1  0  0  0  0
 17 18  2  0  0  0  0
 17 22  1  0  0  0  0
 18 19  1  0  0  0  0
 19 20  2  0  0  0  0
 20 21  1  0  0  0  0
 21 22  2  0  0  0  0
 21 23  1  0  0  0  0
 23 24  1  0  0  0  0
 23 25  1  0  0  0  0
 26 27  1  0  0  0  0
 26 31  1  0  0  0  0
 26 39  1  0  0  0  0
 27 28  1  0  0  0  0
 28 29  2  0  0  0  0
 28 30  1  0  0  0  0
 30 31  1  0  0  0  0
 30 32  1  0  0  0  0
 32 33  1  0  0  0  0
 33 34  2  0  0  0  0
 33 35  1  0  0  0  0
 34 37  1  0  0  0  0
 35 36  2  0  0  0  0
 36 38  1  0  0  0  0
 37 38  2  0  0  0  0
 39 44  1  0  0  0  0
 40 41  2  0  0  0  0
 40 45  1  0  0  0  0
 41 42  1  0  0  0  0
 42 43  2  0  0  0  0
 43 44  1  0  0  0  0
 44 45  2  0  0  0  0
  3 46  1  0  0  0  0
  4 47  1  0  0  0  0
  5 48  1  0  0  0  0
  5 49  1  0  0  0  0
  7 50  1  0  0  0  0
  8 51  1  0  0  0  0
  9 52  1  0  0  0  0
 10 53  1  0  0  0  0
 11 54  1  0  0  0  0
 12 55  1  0  0  0  0
 13 56  1  0  0  0  0
 14 57  1  0  0  0  0
 14 58  1  0  0  0  0
 15 59  1  0  0  0  0
 16 60  1  0  0  0  0
 16 61  1  0  0  0  0
 18 62  1  0  0  0  0
 19 63  1  0  0  0  0
 20 64  1  0  0  0  0
 22 65  1  0  0  0  0
 24 66  1  0  0  0  0
 24 67  1  0  0  0  0
 24 68  1  0  0  0  0
 25 69  1  0  0  0  0
 25 70  1  0  0  0  0
 25 71  1  0  0  0  0
 27 72  1  0  0  0  0
 31 73  1  0  0  0  0
 31 74  1  0  0  0  0
 32 75  1  0  0  0  0
 32 76  1  0  0  0  0
 34 77  1  0  0  0  0
 35 78  1  0  0  0  0
 36 79  1  0  0  0  0
 37 80  1  0  0  0  0
 38 81  1  0  0  0  0
 39 82  1  0  0  0  0
 39 83  1  0  0  0  0
 40 84  1  0  0  0  0
 41 85  1  0  0  0  0
 42 86  1  0  0  0  0
 43 87  1  0  0  0  0
 45 88  1  0  0  0  0
M  END
> <OPENEYE_ISO_SMILES>
CN(C)c1cccc(c1)CNC[C@H]([C@H](Cc2ccccc2)NC(=O)[C@@]3(CN(C(=O)N3)Cc4ccccc4)Cc5ccccc5)O

> <OPENEYE_INCHI>
InChI=1S/C37H43N5O3/c1-41(2)32-20-12-19-31(21-32)24-38-25-34(43)33(22-28-13-6-3-7-14-28)39-35(44)37(23-29-15-8-4-9-16-29)27-42(36(45)40-37)26-30-17-10-5-11-18-30/h3-21,33-34,38,43H,22-27H2,1-2H3,(H,39,44)(H,40,45)/t33-,34+,37-/m0/s1

> <OPENEYE_INCHIKEY>
DCJGHBWTJFHQCR-UEHMVRIRSA-N

> <FORMULA>
C37H43N5O3

$$$$
